<?xml version="1.0" encoding="UTF-8"?>

<!-- generated on 2025-05-06 11:52:30 by Eclipse SUMO netconvert Version 1.15.0
<configuration xmlns:xsi="http://www.w3.org/2001/XMLSchema-instance" xsi:noNamespaceSchemaLocation="http://sumo.dlr.de/xsd/netconvertConfiguration.xsd">

    <input>
        <node-files value="x_junction_nodes.nod.xml"/>
        <edge-files value="x_junction_edges.edg.xml"/>
    </input>

    <output>
        <output-file value="x_junction.net.xml"/>
    </output>

</configuration>
-->

<net version="1.9" junctionCornerDetail="5" limitTurnSpeed="5.50" xmlns:xsi="http://www.w3.org/2001/XMLSchema-instance" xsi:noNamespaceSchemaLocation="http://sumo.dlr.de/xsd/net_file.xsd">

    <location netOffset="0.00,0.00" convBoundary="0.00,0.00,200.00,200.00" origBoundary="0.00,0.00,200.00,200.00" projParameter="!"/>

    <edge id=":n1_0" function="internal">
        <lane id=":n1_0_0" index="0" speed="3.65" length="4.67" shape="0.00,101.60 -1.20,100.80 -1.60,100.00 -1.20,99.20 0.00,98.40"/>
    </edge>
    <edge id=":n2_0" function="internal">
        <lane id=":n2_0_0" index="0" speed="6.51" length="9.03" shape="98.40,107.20 98.05,104.75 97.00,103.00 95.25,101.95 92.80,101.60"/>
    </edge>
    <edge id=":n2_1" function="internal">
        <lane id=":n2_1_0" index="0" speed="13.90" length="14.40" shape="98.40,107.20 98.40,92.80"/>
    </edge>
    <edge id=":n2_2" function="internal">
        <lane id=":n2_2_0" index="0" speed="8.00" length="4.07" shape="98.40,107.20 98.95,103.35 99.04,103.20"/>
    </edge>
    <edge id=":n2_3" function="internal">
        <lane id=":n2_3_0" index="0" speed="3.65" length="1.44" shape="98.40,107.20 99.20,106.00"/>
    </edge>
    <edge id=":n2_16" function="internal">
        <lane id=":n2_16_0" index="0" speed="8.00" length="10.13" shape="99.04,103.20 100.60,100.60 103.35,98.95 107.20,98.40"/>
    </edge>
    <edge id=":n2_17" function="internal">
        <lane id=":n2_17_0" index="0" speed="3.65" length="3.23" shape="99.20,106.00 100.00,105.60 100.80,106.00 101.60,107.20"/>
    </edge>
    <edge id=":n2_4" function="internal">
        <lane id=":n2_4_0" index="0" speed="6.51" length="9.03" shape="107.20,101.60 104.75,101.95 103.00,103.00 101.95,104.75 101.60,107.20"/>
    </edge>
    <edge id=":n2_5" function="internal">
        <lane id=":n2_5_0" index="0" speed="13.90" length="14.40" shape="107.20,101.60 92.80,101.60"/>
    </edge>
    <edge id=":n2_6" function="internal">
        <lane id=":n2_6_0" index="0" speed="8.00" length="4.07" shape="107.20,101.60 103.35,101.05 103.20,100.96"/>
    </edge>
    <edge id=":n2_7" function="internal">
        <lane id=":n2_7_0" index="0" speed="3.65" length="1.44" shape="107.20,101.60 106.00,100.80"/>
    </edge>
    <edge id=":n2_18" function="internal">
        <lane id=":n2_18_0" index="0" speed="8.00" length="10.13" shape="103.20,100.96 100.60,99.40 98.95,96.65 98.40,92.80"/>
    </edge>
    <edge id=":n2_19" function="internal">
        <lane id=":n2_19_0" index="0" speed="3.65" length="3.23" shape="106.00,100.80 105.60,100.00 106.00,99.20 107.20,98.40"/>
    </edge>
    <edge id=":n2_8" function="internal">
        <lane id=":n2_8_0" index="0" speed="6.51" length="9.03" shape="101.60,92.80 101.95,95.25 103.00,97.00 104.75,98.05 107.20,98.40"/>
    </edge>
    <edge id=":n2_9" function="internal">
        <lane id=":n2_9_0" index="0" speed="13.90" length="14.40" shape="101.60,92.80 101.60,107.20"/>
    </edge>
    <edge id=":n2_10" function="internal">
        <lane id=":n2_10_0" index="0" speed="8.00" length="4.07" shape="101.60,92.80 101.05,96.65 100.96,96.80"/>
    </edge>
    <edge id=":n2_11" function="internal">
        <lane id=":n2_11_0" index="0" speed="3.65" length="1.44" shape="101.60,92.80 100.80,94.00"/>
    </edge>
    <edge id=":n2_20" function="internal">
        <lane id=":n2_20_0" index="0" speed="8.00" length="10.13" shape="100.96,96.80 99.40,99.40 96.65,101.05 92.80,101.60"/>
    </edge>
    <edge id=":n2_21" function="internal">
        <lane id=":n2_21_0" index="0" speed="3.65" length="3.23" shape="100.80,94.00 100.00,94.40 99.20,94.00 98.40,92.80"/>
    </edge>
    <edge id=":n2_12" function="internal">
        <lane id=":n2_12_0" index="0" speed="6.51" length="9.03" shape="92.80,98.40 95.25,98.05 97.00,97.00 98.05,95.25 98.40,92.80"/>
    </edge>
    <edge id=":n2_13" function="internal">
        <lane id=":n2_13_0" index="0" speed="13.90" length="14.40" shape="92.80,98.40 107.20,98.40"/>
    </edge>
    <edge id=":n2_14" function="internal">
        <lane id=":n2_14_0" index="0" speed="8.00" length="4.07" shape="92.80,98.40 96.65,98.95 96.80,99.04"/>
    </edge>
    <edge id=":n2_15" function="internal">
        <lane id=":n2_15_0" index="0" speed="3.65" length="1.44" shape="92.80,98.40 94.00,99.20"/>
    </edge>
    <edge id=":n2_22" function="internal">
        <lane id=":n2_22_0" index="0" speed="8.00" length="10.13" shape="96.80,99.04 99.40,100.60 101.05,103.35 101.60,107.20"/>
    </edge>
    <edge id=":n2_23" function="internal">
        <lane id=":n2_23_0" index="0" speed="3.65" length="3.23" shape="94.00,99.20 94.40,100.00 94.00,100.80 92.80,101.60"/>
    </edge>
    <edge id=":n3_0" function="internal">
        <lane id=":n3_0_0" index="0" speed="3.65" length="4.67" shape="200.00,98.40 201.20,99.20 201.60,100.00 201.20,100.80 200.00,101.60"/>
    </edge>
    <edge id=":n4_0" function="internal">
        <lane id=":n4_0_0" index="0" speed="3.65" length="4.67" shape="98.40,0.00 99.20,-1.20 100.00,-1.60 100.80,-1.20 101.60,0.00"/>
    </edge>
    <edge id=":n5_0" function="internal">
        <lane id=":n5_0_0" index="0" speed="3.65" length="4.67" shape="101.60,200.00 100.80,201.20 100.00,201.60 99.20,201.20 98.40,200.00"/>
    </edge>

    <edge id="n1to2" from="n1" to="n2" priority="1">
        <lane id="n1to2_0" index="0" speed="13.90" length="92.80" shape="0.00,98.40 92.80,98.40"/>
    </edge>
    <edge id="n2to1" from="n2" to="n1" priority="1">
        <lane id="n2to1_0" index="0" speed="13.90" length="92.80" shape="92.80,101.60 0.00,101.60"/>
    </edge>
    <edge id="n2to3" from="n2" to="n3" priority="1">
        <lane id="n2to3_0" index="0" speed="13.90" length="92.80" shape="107.20,98.40 200.00,98.40"/>
    </edge>
    <edge id="n2to4" from="n2" to="n4" priority="1">
        <lane id="n2to4_0" index="0" speed="13.90" length="92.80" shape="98.40,92.80 98.40,0.00"/>
    </edge>
    <edge id="n2to5" from="n2" to="n5" priority="1">
        <lane id="n2to5_0" index="0" speed="13.90" length="92.80" shape="101.60,107.20 101.60,200.00"/>
    </edge>
    <edge id="n3to2" from="n3" to="n2" priority="1">
        <lane id="n3to2_0" index="0" speed="13.90" length="92.80" shape="200.00,101.60 107.20,101.60"/>
    </edge>
    <edge id="n4to2" from="n4" to="n2" priority="1">
        <lane id="n4to2_0" index="0" speed="13.90" length="92.80" shape="101.60,0.00 101.60,92.80"/>
    </edge>
    <edge id="n5to2" from="n5" to="n2" priority="1">
        <lane id="n5to2_0" index="0" speed="13.90" length="92.80" shape="98.40,200.00 98.40,107.20"/>
    </edge>

    <tlLogic id="n2" type="static" programID="0" offset="0">
        <phase duration="42" state="GGggrrrrGGggrrrr"/>
        <phase duration="3"  state="yyyyrrrryyyyrrrr"/>
        <phase duration="42" state="rrrrGGggrrrrGGgg"/>
        <phase duration="3"  state="rrrryyyyrrrryyyy"/>
    </tlLogic>

    <junction id="n1" type="priority" x="0.00" y="100.00" incLanes="n2to1_0" intLanes=":n1_0_0" shape="0.00,100.00 0.00,103.20 0.00,100.00">
        <request index="0" response="0" foes="0" cont="0"/>
    </junction>
    <junction id="n2" type="traffic_light" x="100.00" y="100.00" incLanes="n5to2_0 n3to2_0 n4to2_0 n1to2_0" intLanes=":n2_0_0 :n2_1_0 :n2_16_0 :n2_17_0 :n2_4_0 :n2_5_0 :n2_18_0 :n2_19_0 :n2_8_0 :n2_9_0 :n2_20_0 :n2_21_0 :n2_12_0 :n2_13_0 :n2_22_0 :n2_23_0" shape="96.80,107.20 103.20,107.20 103.64,104.98 104.20,104.20 104.98,103.64 105.98,103.31 107.20,103.20 107.20,96.80 104.98,96.36 104.20,95.80 103.64,95.02 103.31,94.02 103.20,92.80 96.80,92.80 96.36,95.02 95.80,95.80 95.02,96.36 94.02,96.69 92.80,96.80 92.80,103.20 95.02,103.64 95.80,104.20 96.36,104.98 96.69,105.98">
        <request index="0"  response="0000000000000000" foes="1000010000100000" cont="0"/>
        <request index="1"  response="0100000001000000" foes="0111110001100000" cont="0"/>
        <request index="2"  response="0100001101000000" foes="0110011111100000" cont="1"/>
        <request index="3"  response="0100001000010000" foes="0100001000010000" cont="1"/>
        <request index="4"  response="0000001000000000" foes="0100001000001000" cont="0"/>
        <request index="5"  response="0000011000000111" foes="1100011000000111" cont="0"/>
        <request index="6"  response="0011011000000110" foes="0111111000000110" cont="1"/>
        <request index="7"  response="0010000100000100" foes="0010000100000100" cont="1"/>
        <request index="8"  response="0000000000000000" foes="0010000010000100" cont="0"/>
        <request index="9"  response="0100000001000000" foes="0110000001111100" cont="0"/>
        <request index="10" response="0100000001000111" foes="1110000001100111" cont="1"/>
        <request index="11" response="0001000001000010" foes="0001000001000010" cont="1"/>
        <request index="12" response="0000000000000010" foes="0000100001000010" cont="0"/>
        <request index="13" response="0000011100000110" foes="0000011111000110" cont="0"/>
        <request index="14" response="0000011001110110" foes="0000011001111110" cont="1"/>
        <request index="15" response="0000010000100001" foes="0000010000100001" cont="1"/>
    </junction>
    <junction id="n3" type="priority" x="200.00" y="100.00" incLanes="n2to3_0" intLanes=":n3_0_0" shape="200.00,100.00 200.00,96.80 200.00,100.00">
        <request index="0" response="0" foes="0" cont="0"/>
    </junction>
    <junction id="n4" type="priority" x="100.00" y="0.00" incLanes="n2to4_0" intLanes=":n4_0_0" shape="100.00,0.00 96.80,0.00 100.00,0.00">
        <request index="0" response="0" foes="0" cont="0"/>
    </junction>
    <junction id="n5" type="priority" x="100.00" y="200.00" incLanes="n2to5_0" intLanes=":n5_0_0" shape="100.00,200.00 103.20,200.00 100.00,200.00">
        <request index="0" response="0" foes="0" cont="0"/>
    </junction>

    <junction id=":n2_16_0" type="internal" x="99.04" y="103.20" incLanes=":n2_2_0 n4to2_0" intLanes=":n2_5_0 :n2_6_0 :n2_7_0 :n2_8_0 :n2_9_0 :n2_13_0 :n2_14_0"/>
    <junction id=":n2_17_0" type="internal" x="99.20" y="106.00" incLanes=":n2_3_0 n1to2_0 n3to2_0 n4to2_0" intLanes=":n2_4_0 :n2_9_0 :n2_14_0"/>
    <junction id=":n2_18_0" type="internal" x="103.20" y="100.96" incLanes=":n2_6_0 n1to2_0" intLanes=":n2_1_0 :n2_2_0 :n2_9_0 :n2_10_0 :n2_11_0 :n2_12_0 :n2_13_0"/>
    <junction id=":n2_19_0" type="internal" x="106.00" y="100.80" incLanes=":n2_7_0 n1to2_0 n4to2_0 n5to2_0" intLanes=":n2_2_0 :n2_8_0 :n2_13_0"/>
    <junction id=":n2_20_0" type="internal" x="100.96" y="96.80" incLanes=":n2_10_0 n5to2_0" intLanes=":n2_0_0 :n2_1_0 :n2_5_0 :n2_6_0 :n2_13_0 :n2_14_0 :n2_15_0"/>
    <junction id=":n2_21_0" type="internal" x="100.80" y="94.00" incLanes=":n2_11_0 n1to2_0 n3to2_0 n5to2_0" intLanes=":n2_1_0 :n2_6_0 :n2_12_0"/>
    <junction id=":n2_22_0" type="internal" x="96.80" y="99.04" incLanes=":n2_14_0 n3to2_0" intLanes=":n2_1_0 :n2_2_0 :n2_3_0 :n2_4_0 :n2_5_0 :n2_9_0 :n2_10_0"/>
    <junction id=":n2_23_0" type="internal" x="94.00" y="99.20" incLanes=":n2_15_0 n3to2_0 n4to2_0 n5to2_0" intLanes=":n2_0_0 :n2_5_0 :n2_10_0"/>

    <connection from="n1to2" to="n2to4" fromLane="0" toLane="0" via=":n2_12_0" tl="n2" linkIndex="12" dir="r" state="o"/>
    <connection from="n1to2" to="n2to3" fromLane="0" toLane="0" via=":n2_13_0" tl="n2" linkIndex="13" dir="s" state="o"/>
    <connection from="n1to2" to="n2to5" fromLane="0" toLane="0" via=":n2_14_0" tl="n2" linkIndex="14" dir="l" state="o"/>
    <connection from="n1to2" to="n2to1" fromLane="0" toLane="0" via=":n2_15_0" tl="n2" linkIndex="15" dir="t" state="o"/>
    <connection from="n2to1" to="n1to2" fromLane="0" toLane="0" via=":n1_0_0" dir="t" state="M"/>
    <connection from="n2to3" to="n3to2" fromLane="0" toLane="0" via=":n3_0_0" dir="t" state="M"/>
    <connection from="n2to4" to="n4to2" fromLane="0" toLane="0" via=":n4_0_0" dir="t" state="M"/>
    <connection from="n2to5" to="n5to2" fromLane="0" toLane="0" via=":n5_0_0" dir="t" state="M"/>
    <connection from="n3to2" to="n2to5" fromLane="0" toLane="0" via=":n2_4_0" tl="n2" linkIndex="4" dir="r" state="o"/>
    <connection from="n3to2" to="n2to1" fromLane="0" toLane="0" via=":n2_5_0" tl="n2" linkIndex="5" dir="s" state="o"/>
    <connection from="n3to2" to="n2to4" fromLane="0" toLane="0" via=":n2_6_0" tl="n2" linkIndex="6" dir="l" state="o"/>
    <connection from="n3to2" to="n2to3" fromLane="0" toLane="0" via=":n2_7_0" tl="n2" linkIndex="7" dir="t" state="o"/>
    <connection from="n4to2" to="n2to3" fromLane="0" toLane="0" via=":n2_8_0" tl="n2" linkIndex="8" dir="r" state="O"/>
    <connection from="n4to2" to="n2to5" fromLane="0" toLane="0" via=":n2_9_0" tl="n2" linkIndex="9" dir="s" state="O"/>
    <connection from="n4to2" to="n2to1" fromLane="0" toLane="0" via=":n2_10_0" tl="n2" linkIndex="10" dir="l" state="o"/>
    <connection from="n4to2" to="n2to4" fromLane="0" toLane="0" via=":n2_11_0" tl="n2" linkIndex="11" dir="t" state="o"/>
    <connection from="n5to2" to="n2to1" fromLane="0" toLane="0" via=":n2_0_0" tl="n2" linkIndex="0" dir="r" state="O"/>
    <connection from="n5to2" to="n2to4" fromLane="0" toLane="0" via=":n2_1_0" tl="n2" linkIndex="1" dir="s" state="O"/>
    <connection from="n5to2" to="n2to3" fromLane="0" toLane="0" via=":n2_2_0" tl="n2" linkIndex="2" dir="l" state="o"/>
    <connection from="n5to2" to="n2to5" fromLane="0" toLane="0" via=":n2_3_0" tl="n2" linkIndex="3" dir="t" state="o"/>

    <connection from=":n1_0" to="n1to2" fromLane="0" toLane="0" dir="t" state="M"/>
    <connection from=":n2_0" to="n2to1" fromLane="0" toLane="0" dir="r" state="M"/>
    <connection from=":n2_1" to="n2to4" fromLane="0" toLane="0" dir="s" state="M"/>
    <connection from=":n2_2" to="n2to3" fromLane="0" toLane="0" via=":n2_16_0" dir="l" state="m"/>
    <connection from=":n2_16" to="n2to3" fromLane="0" toLane="0" dir="l" state="M"/>
    <connection from=":n2_3" to="n2to5" fromLane="0" toLane="0" via=":n2_17_0" dir="t" state="m"/>
    <connection from=":n2_17" to="n2to5" fromLane="0" toLane="0" dir="t" state="M"/>
    <connection from=":n2_4" to="n2to5" fromLane="0" toLane="0" dir="r" state="M"/>
    <connection from=":n2_5" to="n2to1" fromLane="0" toLane="0" dir="s" state="M"/>
    <connection from=":n2_6" to="n2to4" fromLane="0" toLane="0" via=":n2_18_0" dir="l" state="m"/>
    <connection from=":n2_18" to="n2to4" fromLane="0" toLane="0" dir="l" state="M"/>
    <connection from=":n2_7" to="n2to3" fromLane="0" toLane="0" via=":n2_19_0" dir="t" state="m"/>
    <connection from=":n2_19" to="n2to3" fromLane="0" toLane="0" dir="t" state="M"/>
    <connection from=":n2_8" to="n2to3" fromLane="0" toLane="0" dir="r" state="M"/>
    <connection from=":n2_9" to="n2to5" fromLane="0" toLane="0" dir="s" state="M"/>
    <connection from=":n2_10" to="n2to1" fromLane="0" toLane="0" via=":n2_20_0" dir="l" state="m"/>
    <connection from=":n2_20" to="n2to1" fromLane="0" toLane="0" dir="l" state="M"/>
    <connection from=":n2_11" to="n2to4" fromLane="0" toLane="0" via=":n2_21_0" dir="t" state="m"/>
    <connection from=":n2_21" to="n2to4" fromLane="0" toLane="0" dir="t" state="M"/>
    <connection from=":n2_12" to="n2to4" fromLane="0" toLane="0" dir="r" state="M"/>
    <connection from=":n2_13" to="n2to3" fromLane="0" toLane="0" dir="s" state="M"/>
    <connection from=":n2_14" to="n2to5" fromLane="0" toLane="0" via=":n2_22_0" dir="l" state="m"/>
    <connection from=":n2_22" to="n2to5" fromLane="0" toLane="0" dir="l" state="M"/>
    <connection from=":n2_15" to="n2to1" fromLane="0" toLane="0" via=":n2_23_0" dir="t" state="m"/>
    <connection from=":n2_23" to="n2to1" fromLane="0" toLane="0" dir="t" state="M"/>
    <connection from=":n3_0" to="n3to2" fromLane="0" toLane="0" dir="t" state="M"/>
    <connection from=":n4_0" to="n4to2" fromLane="0" toLane="0" dir="t" state="M"/>
    <connection from=":n5_0" to="n5to2" fromLane="0" toLane="0" dir="t" state="M"/>

</net>
