<configuration>
    <input>
        <node-files value="x_junction_nodes.nod.xml"/>
        <edge-files value="x_junction_edges.edg.xml"/>
    </input>
    <output>
        <output-file value="x_junction.net.xml"/>
    </output>
</configuration>
