<configuration>
    <input>
        <net-file value="x_junction.net.xml"/>
        <route-files value="x_junction.rou.xml"/>
    </input>
    <time>
        <begin value="0"/>
        <end value="120"/>
    </time>
</configuration>
